Circuit: * C:\Users\ep18810\Documents\Prywatne\Altium\GIT\STM32_DSP\Draft1.asc

Direct Newton iteration failed to find .op point.  (Use ".option noopiter" to skip.)
Starting Gmin stepping
Gmin = 10
Gmin = 1.07374
Gmin = 0.115292
Gmin = 0.0123794
Gmin = 0.00132923
Gmin = 0.000142725
Gmin = 1.5325e-005
Gmin = 1.6455e-006
vernier = 0.5
Gmin = 2.7607e-007
vernier = 0.25
vernier = 0.333333
Gmin = 1.54418e-007
vernier = 0.444444
Gmin = 5.95805e-008
vernier = 0.592592
vernier = 0.790123
Gmin = 1.26465e-008
vernier = 1
Gmin = 1.47951e-009
Gmin = 1.58861e-010
Gmin = 1.70576e-011
Gmin = 1.83154e-012
Gmin = 1.9666e-013
Gmin = 0
Gmin stepping succeeded in finding the operating point.


Date: Thu Apr 25 11:45:54 2024
Total elapsed time: 0.461 seconds.

tnom = 27
temp = 27
method = modified trap
totiter = 20706
traniter = 20046
tranpoints = 10024
accept = 10022
rejected = 2
matrix size = 38
fillins = 63
solver = Normal
Thread vector: 6.8/4.7[4] 4.7/1.8[4] 1.9/2.8[1] 0.1/1.0[1]  2592/500
Matrix Compiler1:     311 opcodes  0.9/[0.6]/0.6
Matrix Compiler2: 4.51 KB object code size  0.3/0.5/[0.2]

